{
   "completed_at" : "20240119T064834Z",
   "completed_status" : "Success",
   "created_at" : "20240104T075306Z",
   "current_step" : 0,
   "eplusout_err" : "Program Version,EnergyPlus, Version 23.1.0-87ed9199d4, YMD=2024.01.19 14:48,\n   ************* Beginning Zone Sizing Calculations\n   ** Warning ** ProcessScheduleInput: Schedule:Constant=\"ALWAYS OFF DISCRETE\", Blank Schedule Type Limits Name input -- will not be validated.\n   ** Warning ** ProcessScheduleInput: Schedule:Constant=\"ALWAYS ON CONTINUOUS\", Blank Schedule Type Limits Name input -- will not be validated.\n   ** Warning ** GetHTSurfaceData: Surfaces with interface to Ground found but no \"Ground Temperatures\" were input.\n   **   ~~~   ** Found first in surface=SURFACE 14\n   **   ~~~   ** Defaults, constant throughout the year of (18.0) will be used.\n   ** Warning ** CalculateZoneVolume: 2 zones are not fully enclosed. For more details use:  Output:Diagnostics,DisplayExtrawarnings; \n   ** Warning ** CheckUsedConstructions: There are 20 nominally unused constructions in input.\n   **   ~~~   ** For explicit details on each unused construction, use Output:Diagnostics,DisplayExtraWarnings;\n   ** Warning ** UpdateZoneSizing: Cooling supply air temperature (calculated) within 5C of zone temperature\n   **   ~~~   ** ...check zone thermostat set point and design supply air temperatures\n   **   ~~~   ** ...zone name = THERMAL ZONE 4\n   **   ~~~   ** ...design sensible cooling load = 3134.09 W\n   **   ~~~   ** ...thermostat set point temp    = 0.000 C\n   **   ~~~   ** ...zone temperature             = 21.415 C\n   **   ~~~   ** ...supply air temperature       = 18.000 C\n   **   ~~~   ** ...temperature difference       = -3.41531 C\n   **   ~~~   ** ...calculated volume flow rate  = 0.74935 m3/s\n   **   ~~~   ** ...calculated mass flow rate    = 0.89911 kg/s\n   ** Warning ** UpdateZoneSizing: Cooling supply air temperature (calculated) within 5C of zone temperature\n   **   ~~~   ** ...check zone thermostat set point and design supply air temperatures\n   **   ~~~   ** ...zone name = THERMAL ZONE 5\n   **   ~~~   ** ...design sensible cooling load = 1580.58 W\n   **   ~~~   ** ...thermostat set point temp    = 0.000 C\n   **   ~~~   ** ...zone temperature             = 21.415 C\n   **   ~~~   ** ...supply air temperature       = 18.000 C\n   **   ~~~   ** ...temperature difference       = -3.41474 C\n   **   ~~~   ** ...calculated volume flow rate  = 0.37797 m3/s\n   **   ~~~   ** ...calculated mass flow rate    = 0.45351 kg/s\n   ************* Beginning System Sizing Calculations\n   ** Warning ** GetOAControllerInputs: Controller:MechanicalVentilation=\"CONTROLLER MECHANICAL VENTILATION 1\"\n   **   ~~~   ** Cannot locate a matching DesignSpecification:ZoneAirDistribution object for Zone=\"THERMAL ZONE 1\".\n   **   ~~~   ** Using default zone air distribution effectiveness of 1.0 for heating and cooling.\n   ** Warning ** GetOAControllerInputs: Controller:MechanicalVentilation=\"CONTROLLER MECHANICAL VENTILATION 2\"\n   **   ~~~   ** Cannot locate a matching DesignSpecification:ZoneAirDistribution object for Zone=\"THERMAL ZONE 2\".\n   **   ~~~   ** Using default zone air distribution effectiveness of 1.0 for heating and cooling.\n   ** Warning ** GetOAControllerInputs: Controller:MechanicalVentilation=\"CONTROLLER MECHANICAL VENTILATION 3\"\n   **   ~~~   ** Cannot locate a matching DesignSpecification:ZoneAirDistribution object for Zone=\"THERMAL ZONE 3\".\n   **   ~~~   ** Using default zone air distribution effectiveness of 1.0 for heating and cooling.\n   ** Warning ** GetOAControllerInputs: Controller:MechanicalVentilation=\"CONTROLLER MECHANICAL VENTILATION 4\"\n   **   ~~~   ** Cannot locate a matching DesignSpecification:ZoneAirDistribution object for Zone=\"THERMAL ZONE 4\".\n   **   ~~~   ** Using default zone air distribution effectiveness of 1.0 for heating and cooling.\n   ** Warning ** GetOAControllerInputs: Controller:MechanicalVentilation=\"CONTROLLER MECHANICAL VENTILATION 5\"\n   **   ~~~   ** Cannot locate a matching DesignSpecification:ZoneAirDistribution object for Zone=\"THERMAL ZONE 5\".\n   **   ~~~   ** Using default zone air distribution effectiveness of 1.0 for heating and cooling.\n   ** Warning ** GetOAControllerInputs: Controller:MechanicalVentilation=\"CONTROLLER MECHANICAL VENTILATION 6\"\n   **   ~~~   ** Cannot locate a matching DesignSpecification:ZoneAirDistribution object for Zone=\"THERMAL ZONE 6\".\n   **   ~~~   ** Using default zone air distribution effectiveness of 1.0 for heating and cooling.\n   ** Warning ** Output:Meter: invalid Key Name=\"NATURALGAS:FACILITY\" - not found.\n   ** Warning ** Output:Meter: invalid Key Name=\"DISTRICTCOOLING:FACILITY\" - not found.\n   ** Warning ** Output:Meter: invalid Key Name=\"DISTRICTHEATING:FACILITY\" - not found.\n   ** Warning ** Output:Meter:MeterFileOnly: invalid Key Name=\"NATURALGAS:FACILITY\" - not found.\n   ** Warning ** Output:Meter:MeterFileOnly requested for \"Electricity:Facility\" (TimeStep), already on \"Output:Meter\". Will report to both eplusout.eso and eplusout.mtr\n   ************* Testing Individual Branch Integrity\n   ************* All Branches passed integrity testing\n   ************* Testing Individual Supply Air Path Integrity\n   ************* All Supply Air Paths passed integrity testing\n   ************* Testing Individual Return Air Path Integrity\n   ************* All Return Air Paths passed integrity testing\n   ************* No node connection errors were found.\n   ************* Beginning Simulation\n   ** Warning ** In Output:Table:Monthly 'BUILDING ENERGY PERFORMANCE - ELECTRICITY' invalid Variable or Meter Name 'EXTERIORLIGHTS:ELECTRICITY'\n   ** Warning ** In Output:Table:Monthly 'BUILDING ENERGY PERFORMANCE - ELECTRICITY' invalid Variable or Meter Name 'EXTERIOREQUIPMENT:ELECTRICITY'\n   ** Warning ** In Output:Table:Monthly 'BUILDING ENERGY PERFORMANCE - ELECTRICITY' invalid Variable or Meter Name 'PUMPS:ELECTRICITY'\n   ** Warning ** In Output:Table:Monthly 'BUILDING ENERGY PERFORMANCE - ELECTRICITY' invalid Variable or Meter Name 'HEATREJECTION:ELECTRICITY'\n   ** Warning ** In Output:Table:Monthly 'BUILDING ENERGY PERFORMANCE - ELECTRICITY' invalid Variable or Meter Name 'HUMIDIFIER:ELECTRICITY'\n   ** Warning ** In Output:Table:Monthly 'BUILDING ENERGY PERFORMANCE - ELECTRICITY' invalid Variable or Meter Name 'HEATRECOVERY:ELECTRICITY'\n   ** Warning ** In Output:Table:Monthly 'BUILDING ENERGY PERFORMANCE - ELECTRICITY' invalid Variable or Meter Name 'WATERSYSTEMS:ELECTRICITY'\n   ** Warning ** In Output:Table:Monthly 'BUILDING ENERGY PERFORMANCE - ELECTRICITY' invalid Variable or Meter Name 'COGENERATION:ELECTRICITY'\n   ** Warning ** In Output:Table:Monthly 'BUILDING ENERGY PERFORMANCE - ELECTRICITY' invalid Variable or Meter Name 'REFRIGERATION:ELECTRICITY'\n   ** Warning ** In Output:Table:Monthly 'BUILDING ENERGY PERFORMANCE - NATURAL GAS' invalid Variable or Meter Name 'INTERIOREQUIPMENT:NATURALGAS'\n   ** Warning ** In Output:Table:Monthly 'BUILDING ENERGY PERFORMANCE - NATURAL GAS' invalid Variable or Meter Name 'EXTERIOREQUIPMENT:NATURALGAS'\n   ** Warning ** In Output:Table:Monthly 'BUILDING ENERGY PERFORMANCE - NATURAL GAS' invalid Variable or Meter Name 'HEATING:NATURALGAS'\n   ** Warning ** In Output:Table:Monthly 'BUILDING ENERGY PERFORMANCE - NATURAL GAS' invalid Variable or Meter Name 'COOLING:NATURALGAS'\n   ** Warning ** In Output:Table:Monthly 'BUILDING ENERGY PERFORMANCE - NATURAL GAS' invalid Variable or Meter Name 'WATERSYSTEMS:NATURALGAS'\n   ** Warning ** In Output:Table:Monthly 'BUILDING ENERGY PERFORMANCE - NATURAL GAS' invalid Variable or Meter Name 'COGENERATION:NATURALGAS'\n   ** Warning ** In Output:Table:Monthly 'BUILDING ENERGY PERFORMANCE - DISTRICT HEATING' invalid Variable or Meter Name 'INTERIORLIGHTS:DISTRICTHEATING'\n   ** Warning ** In Output:Table:Monthly 'BUILDING ENERGY PERFORMANCE - DISTRICT HEATING' invalid Variable or Meter Name 'EXTERIORLIGHTS:DISTRICTHEATING'\n   ** Warning ** In Output:Table:Monthly 'BUILDING ENERGY PERFORMANCE - DISTRICT HEATING' invalid Variable or Meter Name 'INTERIOREQUIPMENT:DISTRICTHEATING'\n   ** Warning ** In Output:Table:Monthly 'BUILDING ENERGY PERFORMANCE - DISTRICT HEATING' invalid Variable or Meter Name 'EXTERIOREQUIPMENT:DISTRICTHEATING'\n   ** Warning ** In Output:Table:Monthly 'BUILDING ENERGY PERFORMANCE - DISTRICT HEATING' invalid Variable or Meter Name 'FANS:DISTRICTHEATING'\n   ** Warning ** In Output:Table:Monthly 'BUILDING ENERGY PERFORMANCE - DISTRICT HEATING' invalid Variable or Meter Name 'PUMPS:DISTRICTHEATING'\n   ** Warning ** In Output:Table:Monthly 'BUILDING ENERGY PERFORMANCE - DISTRICT HEATING' invalid Variable or Meter Name 'HEATING:DISTRICTHEATING'\n   ** Warning ** In Output:Table:Monthly 'BUILDING ENERGY PERFORMANCE - DISTRICT HEATING' invalid Variable or Meter Name 'COOLING:DISTRICTHEATING'\n   ** Warning ** In Output:Table:Monthly 'BUILDING ENERGY PERFORMANCE - DISTRICT HEATING' invalid Variable or Meter Name 'HEATREJECTION:DISTRICTHEATING'\n   ** Warning ** In Output:Table:Monthly 'BUILDING ENERGY PERFORMANCE - DISTRICT HEATING' invalid Variable or Meter Name 'HUMIDIFIER:DISTRICTHEATING'\n   ** Warning ** In Output:Table:Monthly 'BUILDING ENERGY PERFORMANCE - DISTRICT HEATING' invalid Variable or Meter Name 'HEATRECOVERY:DISTRICTHEATING'\n   ** Warning ** In Output:Table:Monthly 'BUILDING ENERGY PERFORMANCE - DISTRICT HEATING' invalid Variable or Meter Name 'WATERSYSTEMS:DISTRICTHEATING'\n   ** Warning ** In Output:Table:Monthly 'BUILDING ENERGY PERFORMANCE - DISTRICT HEATING' invalid Variable or Meter Name 'COGENERATION:DISTRICTHEATING'\n   ** Warning ** In Output:Table:Monthly 'BUILDING ENERGY PERFORMANCE - DISTRICT COOLING' invalid Variable or Meter Name 'INTERIORLIGHTS:DISTRICTCOOLING'\n   ** Warning ** In Output:Table:Monthly 'BUILDING ENERGY PERFORMANCE - DISTRICT COOLING' invalid Variable or Meter Name 'EXTERIORLIGHTS:DISTRICTCOOLING'\n   ** Warning ** In Output:Table:Monthly 'BUILDING ENERGY PERFORMANCE - DISTRICT COOLING' invalid Variable or Meter Name 'INTERIOREQUIPMENT:DISTRICTCOOLING'\n   ** Warning ** In Output:Table:Monthly 'BUILDING ENERGY PERFORMANCE - DISTRICT COOLING' invalid Variable or Meter Name 'EXTERIOREQUIPMENT:DISTRICTCOOLING'\n   ** Warning ** In Output:Table:Monthly 'BUILDING ENERGY PERFORMANCE - DISTRICT COOLING' invalid Variable or Meter Name 'FANS:DISTRICTCOOLING'\n   ** Warning ** In Output:Table:Monthly 'BUILDING ENERGY PERFORMANCE - DISTRICT COOLING' invalid Variable or Meter Name 'PUMPS:DISTRICTCOOLING'\n   ** Warning ** In Output:Table:Monthly 'BUILDING ENERGY PERFORMANCE - DISTRICT COOLING' invalid Variable or Meter Name 'HEATING:DISTRICTCOOLING'\n   ** Warning ** In Output:Table:Monthly 'BUILDING ENERGY PERFORMANCE - DISTRICT COOLING' invalid Variable or Meter Name 'COOLING:DISTRICTCOOLING'\n   ** Warning ** In Output:Table:Monthly 'BUILDING ENERGY PERFORMANCE - DISTRICT COOLING' invalid Variable or Meter Name 'HEATREJECTION:DISTRICTCOOLING'\n   ** Warning ** In Output:Table:Monthly 'BUILDING ENERGY PERFORMANCE - DISTRICT COOLING' invalid Variable or Meter Name 'HUMIDIFIER:DISTRICTCOOLING'\n   ** Warning ** In Output:Table:Monthly 'BUILDING ENERGY PERFORMANCE - DISTRICT COOLING' invalid Variable or Meter Name 'HEATRECOVERY:DISTRICTCOOLING'\n   ** Warning ** In Output:Table:Monthly 'BUILDING ENERGY PERFORMANCE - DISTRICT COOLING' invalid Variable or Meter Name 'WATERSYSTEMS:DISTRICTCOOLING'\n   ** Warning ** In Output:Table:Monthly 'BUILDING ENERGY PERFORMANCE - DISTRICT COOLING' invalid Variable or Meter Name 'COGENERATION:DISTRICTCOOLING'\n   ** Warning ** In Output:Table:Monthly 'BUILDING ENERGY PERFORMANCE - ELECTRICITY PEAK DEMAND' invalid Variable or Meter Name 'EXTERIORLIGHTS:ELECTRICITY'\n   ** Warning ** In Output:Table:Monthly 'BUILDING ENERGY PERFORMANCE - ELECTRICITY PEAK DEMAND' invalid Variable or Meter Name 'EXTERIOREQUIPMENT:ELECTRICITY'\n   ** Warning ** In Output:Table:Monthly 'BUILDING ENERGY PERFORMANCE - ELECTRICITY PEAK DEMAND' invalid Variable or Meter Name 'PUMPS:ELECTRICITY'\n   ** Warning ** In Output:Table:Monthly 'BUILDING ENERGY PERFORMANCE - ELECTRICITY PEAK DEMAND' invalid Variable or Meter Name 'HEATREJECTION:ELECTRICITY'\n   ** Warning ** In Output:Table:Monthly 'BUILDING ENERGY PERFORMANCE - ELECTRICITY PEAK DEMAND' invalid Variable or Meter Name 'HUMIDIFIER:ELECTRICITY'\n   ** Warning ** In Output:Table:Monthly 'BUILDING ENERGY PERFORMANCE - ELECTRICITY PEAK DEMAND' invalid Variable or Meter Name 'HEATRECOVERY:ELECTRICITY'\n   ** Warning ** In Output:Table:Monthly 'BUILDING ENERGY PERFORMANCE - ELECTRICITY PEAK DEMAND' invalid Variable or Meter Name 'WATERSYSTEMS:ELECTRICITY'\n   ** Warning ** In Output:Table:Monthly 'BUILDING ENERGY PERFORMANCE - ELECTRICITY PEAK DEMAND' invalid Variable or Meter Name 'COGENERATION:ELECTRICITY'\n   ** Warning ** In Output:Table:Monthly 'BUILDING ENERGY PERFORMANCE - NATURAL GAS PEAK DEMAND' invalid Variable or Meter Name 'NATURALGAS:FACILITY'\n   ** Warning ** In Output:Table:Monthly 'BUILDING ENERGY PERFORMANCE - NATURAL GAS PEAK DEMAND' invalid Variable or Meter Name 'INTERIOREQUIPMENT:NATURALGAS'\n   ** Warning ** In Output:Table:Monthly 'BUILDING ENERGY PERFORMANCE - NATURAL GAS PEAK DEMAND' invalid Variable or Meter Name 'EXTERIOREQUIPMENT:NATURALGAS'\n   ** Warning ** In Output:Table:Monthly 'BUILDING ENERGY PERFORMANCE - NATURAL GAS PEAK DEMAND' invalid Variable or Meter Name 'HEATING:NATURALGAS'\n   ** Warning ** In Output:Table:Monthly 'BUILDING ENERGY PERFORMANCE - NATURAL GAS PEAK DEMAND' invalid Variable or Meter Name 'COOLING:NATURALGAS'\n   ** Warning ** In Output:Table:Monthly 'BUILDING ENERGY PERFORMANCE - NATURAL GAS PEAK DEMAND' invalid Variable or Meter Name 'WATERSYSTEMS:NATURALGAS'\n   ** Warning ** In Output:Table:Monthly 'BUILDING ENERGY PERFORMANCE - NATURAL GAS PEAK DEMAND' invalid Variable or Meter Name 'COGENERATION:NATURALGAS'\n   ** Warning ** In Output:Table:Monthly 'BUILDING ENERGY PERFORMANCE - DISTRICT HEATING PEAK DEMAND' invalid Variable or Meter Name 'DISTRICTHEATING:FACILITY'\n   ** Warning ** In Output:Table:Monthly 'BUILDING ENERGY PERFORMANCE - DISTRICT HEATING PEAK DEMAND' invalid Variable or Meter Name 'INTERIORLIGHTS:DISTRICTHEATING'\n   ** Warning ** In Output:Table:Monthly 'BUILDING ENERGY PERFORMANCE - DISTRICT HEATING PEAK DEMAND' invalid Variable or Meter Name 'EXTERIORLIGHTS:DISTRICTHEATING'\n   ** Warning ** In Output:Table:Monthly 'BUILDING ENERGY PERFORMANCE - DISTRICT HEATING PEAK DEMAND' invalid Variable or Meter Name 'INTERIOREQUIPMENT:DISTRICTHEATING'\n   ** Warning ** In Output:Table:Monthly 'BUILDING ENERGY PERFORMANCE - DISTRICT HEATING PEAK DEMAND' invalid Variable or Meter Name 'EXTERIOREQUIPMENT:DISTRICTHEATING'\n   ** Warning ** In Output:Table:Monthly 'BUILDING ENERGY PERFORMANCE - DISTRICT HEATING PEAK DEMAND' invalid Variable or Meter Name 'FANS:DISTRICTHEATING'\n   ** Warning ** In Output:Table:Monthly 'BUILDING ENERGY PERFORMANCE - DISTRICT HEATING PEAK DEMAND' invalid Variable or Meter Name 'PUMPS:DISTRICTHEATING'\n   ** Warning ** In Output:Table:Monthly 'BUILDING ENERGY PERFORMANCE - DISTRICT HEATING PEAK DEMAND' invalid Variable or Meter Name 'HEATING:DISTRICTHEATING'\n   ** Warning ** In Output:Table:Monthly 'BUILDING ENERGY PERFORMANCE - DISTRICT HEATING PEAK DEMAND' invalid Variable or Meter Name 'COOLING:DISTRICTHEATING'\n   ** Warning ** In Output:Table:Monthly 'BUILDING ENERGY PERFORMANCE - DISTRICT HEATING PEAK DEMAND' invalid Variable or Meter Name 'HEATREJECTION:DISTRICTHEATING'\n   ** Warning ** In Output:Table:Monthly 'BUILDING ENERGY PERFORMANCE - DISTRICT HEATING PEAK DEMAND' invalid Variable or Meter Name 'HUMIDIFIER:DISTRICTHEATING'\n   ** Warning ** In Output:Table:Monthly 'BUILDING ENERGY PERFORMANCE - DISTRICT HEATING PEAK DEMAND' invalid Variable or Meter Name 'HEATRECOVERY:DISTRICTHEATING'\n   ** Warning ** In Output:Table:Monthly 'BUILDING ENERGY PERFORMANCE - DISTRICT HEATING PEAK DEMAND' invalid Variable or Meter Name 'WATERSYSTEMS:DISTRICTHEATING'\n   ** Warning ** In Output:Table:Monthly 'BUILDING ENERGY PERFORMANCE - DISTRICT HEATING PEAK DEMAND' invalid Variable or Meter Name 'COGENERATION:DISTRICTHEATING'\n   ** Warning ** In Output:Table:Monthly 'BUILDING ENERGY PERFORMANCE - DISTRICT COOLING PEAK DEMAND' invalid Variable or Meter Name 'DISTRICTCOOLING:FACILITY'\n   ** Warning ** In Output:Table:Monthly 'BUILDING ENERGY PERFORMANCE - DISTRICT COOLING PEAK DEMAND' invalid Variable or Meter Name 'INTERIORLIGHTS:DISTRICTCOOLING'\n   ** Warning ** In Output:Table:Monthly 'BUILDING ENERGY PERFORMANCE - DISTRICT COOLING PEAK DEMAND' invalid Variable or Meter Name 'EXTERIORLIGHTS:DISTRICTCOOLING'\n   ** Warning ** In Output:Table:Monthly 'BUILDING ENERGY PERFORMANCE - DISTRICT COOLING PEAK DEMAND' invalid Variable or Meter Name 'INTERIOREQUIPMENT:DISTRICTCOOLING'\n   ** Warning ** In Output:Table:Monthly 'BUILDING ENERGY PERFORMANCE - DISTRICT COOLING PEAK DEMAND' invalid Variable or Meter Name 'EXTERIOREQUIPMENT:DISTRICTCOOLING'\n   ** Warning ** In Output:Table:Monthly 'BUILDING ENERGY PERFORMANCE - DISTRICT COOLING PEAK DEMAND' invalid Variable or Meter Name 'FANS:DISTRICTCOOLING'\n   ** Warning ** In Output:Table:Monthly 'BUILDING ENERGY PERFORMANCE - DISTRICT COOLING PEAK DEMAND' invalid Variable or Meter Name 'PUMPS:DISTRICTCOOLING'\n   ** Warning ** In Output:Table:Monthly 'BUILDING ENERGY PERFORMANCE - DISTRICT COOLING PEAK DEMAND' invalid Variable or Meter Name 'HEATING:DISTRICTCOOLING'\n   ** Warning ** In Output:Table:Monthly 'BUILDING ENERGY PERFORMANCE - DISTRICT COOLING PEAK DEMAND' invalid Variable or Meter Name 'COOLING:DISTRICTCOOLING'\n   ** Warning ** In Output:Table:Monthly 'BUILDING ENERGY PERFORMANCE - DISTRICT COOLING PEAK DEMAND' invalid Variable or Meter Name 'HEATREJECTION:DISTRICTCOOLING'\n   ** Warning ** In Output:Table:Monthly 'BUILDING ENERGY PERFORMANCE - DISTRICT COOLING PEAK DEMAND' invalid Variable or Meter Name 'HUMIDIFIER:DISTRICTCOOLING'\n   ** Warning ** In Output:Table:Monthly 'BUILDING ENERGY PERFORMANCE - DISTRICT COOLING PEAK DEMAND' invalid Variable or Meter Name 'HEATRECOVERY:DISTRICTCOOLING'\n   ** Warning ** In Output:Table:Monthly 'BUILDING ENERGY PERFORMANCE - DISTRICT COOLING PEAK DEMAND' invalid Variable or Meter Name 'WATERSYSTEMS:DISTRICTCOOLING'\n   ** Warning ** In Output:Table:Monthly 'BUILDING ENERGY PERFORMANCE - DISTRICT COOLING PEAK DEMAND' invalid Variable or Meter Name 'COGENERATION:DISTRICTCOOLING'\n   ** Warning ** Processing Monthly Tabular Reports: Variable names not valid for this simulation\n   **   ~~~   ** ...use Output:Diagnostics,DisplayExtraWarnings; to show more details on individual variables.\n   ** Warning ** WetBulb not converged after 101 iterations(PsyTwbFnTdbWPb)\n   **   ~~~   **  Routine=Unknown, Environment=RUN PERIOD 1, at Simulation time=01/20 03:40 - 03:50\n   **   ~~~   **  Input Temperature = 7.90\n   **   ~~~   **  Input Humidity Ratio= 5.532414E-004\n   **   ~~~   **  Input Pressure = 102180.00\n   **   ~~~   **  Resultant Temperature= 3.22E-002\n   ** Warning ** Temperature out of range [-100. to 200.] (PsyPsatFnTemp)\n   **   ~~~   **  Routine=PsyTwbFnTdbWPb, Environment=RUN PERIOD 1, at Simulation time=01/25 03:00 - 03:10\n   **   ~~~   **  Input Temperature=-430.01\n   ** Warning ** Enthalpy out of range (PsyTsatFnHPb)\n   **   ~~~   **  Routine=CalcMultiSpeedDXCoil:newdewpointconditions,\n   **   ~~~   **  Environment=RUN PERIOD 1, at Simulation time=03/06 14:30 - 14:40\n   **   ~~~   **  Enthalpy=-56456.40119 Pressure= 100550.00\n   **   ~~~   **  Initial Resultant Temperature= -59.98\n   ** Warning ** Calculated Humidity Ratio invalid (PsyWFnTdbH)\n   **   ~~~   **  Routine=CalcMultiSpeedDXCoil:newdewpointconditions\n   **   ~~~   **  Environment=RUN PERIOD 1, at Simulation time=03/06 14:30 - 14:40\n   **   ~~~   **  Dry-Bulb= -59.98 Enthalpy= -74320.101\n   **   ~~~   ** Calculated Humidity Ratio= -5.8759E-003 ... Humidity Ratio set to .00001\n   ** Warning ** SimHVAC: Maximum iterations (20) exceeded for all HVAC loops, at RUN PERIOD 1, 03/06 14:30 - 14:40\n   **   ~~~   ** The solution for one or more of the Air Loop HVAC systems did not appear to converge\n   **   ~~~   ** ...use Output:Diagnostics,DisplayExtraWarnings; to show more details on each max iteration exceeded.\n   ** Warning ** SimHVAC: Maximum iterations (20) exceeded for all HVAC loops, at RUN PERIOD 1, 03/07 14:30 - 14:40\n   **   ~~~   ** The solution for one or more of the Air Loop HVAC systems did not appear to converge\n   ** Warning ** SimHVAC: Maximum iterations (20) exceeded for all HVAC loops, at RUN PERIOD 1, 03/07 16:30 - 16:40\n   **   ~~~   ** The solution for one or more of the Air Loop HVAC systems did not appear to converge\n   ** Warning ** SimHVAC: Maximum iterations (20) exceeded for all HVAC loops, at RUN PERIOD 1, 03/08 16:00 - 16:10\n   **   ~~~   ** The solution for one or more of the Air Loop HVAC systems did not appear to converge\n   ** Warning ** SimHVAC: Maximum iterations (20) exceeded for all HVAC loops, at RUN PERIOD 1, 03/08 16:10 - 16:20\n   **   ~~~   ** The solution for one or more of the Air Loop HVAC systems did not appear to converge\n   ** Warning ** SimHVAC: Maximum iterations (20) exceeded for all HVAC loops, at RUN PERIOD 1, 03/08 16:20 - 16:30\n   **   ~~~   ** The solution for one or more of the Air Loop HVAC systems did not appear to converge\n   ** Warning ** SimHVAC: Maximum iterations (20) exceeded for all HVAC loops, at RUN PERIOD 1, 03/09 15:50 - 16:00\n   **   ~~~   ** The solution for one or more of the Air Loop HVAC systems did not appear to converge\n   ** Warning ** SimHVAC: Maximum iterations (20) exceeded for all HVAC loops, at RUN PERIOD 1, 03/10 15:50 - 16:00\n   **   ~~~   ** The solution for one or more of the Air Loop HVAC systems did not appear to converge\n   ** Warning ** SimHVAC: Maximum iterations (20) exceeded for all HVAC loops, at RUN PERIOD 1, 03/20 16:00 - 16:10\n   **   ~~~   ** The solution for one or more of the Air Loop HVAC systems did not appear to converge\n   ** Warning ** SimHVAC: Maximum iterations (20) exceeded for all HVAC loops, at RUN PERIOD 1, 03/21 15:40 - 15:50\n   **   ~~~   ** The solution for one or more of the Air Loop HVAC systems did not appear to converge\n   ** Warning ** SimHVAC: Maximum iterations (20) exceeded for all HVAC loops, at RUN PERIOD 1, 03/21 16:50 - 17:00\n   **   ~~~   ** The solution for one or more of the Air Loop HVAC systems did not appear to converge\n   ** Warning ** SimHVAC: Maximum iterations (20) exceeded for all HVAC loops, at RUN PERIOD 1, 03/27 17:40 - 17:50\n   **   ~~~   ** The solution for one or more of the Air Loop HVAC systems did not appear to converge\n   ** Warning ** SimHVAC: Maximum iterations (20) exceeded for all HVAC loops, at RUN PERIOD 1, 03/27 17:40 - 17:45\n   **   ~~~   ** The solution for one or more of the Air Loop HVAC systems did not appear to converge\n   ** Warning ** SimHVAC: Maximum iterations (20) exceeded for all HVAC loops, at RUN PERIOD 1, 03/27 17:45 - 17:50\n   **   ~~~   ** The solution for one or more of the Air Loop HVAC systems did not appear to converge\n   ** Warning ** Entered Humidity Ratio invalid (PsyTwbFnTdbWPb)\n   **   ~~~   **  Routine=ReportCoilSelection::doFinalProcessingOfCoilData\n   **   ~~~   **  Environment=RUN PERIOD 1, at Simulation time=12/31 24:00 - 24:10\n   **   ~~~   **  Dry-Bulb= 22.47 Humidity Ratio= -998.999 Pressure= 100949.50\n   **   ~~~   ** Humidity Ratio= -998.9999 ... Humidity Ratio set to .00001\n   ** Warning ** The resource referenced by LifeCycleCost:UsePriceEscalation= \"U.S. AVG  COMMERCIAL-ELECTRICITY\" has no energy cost. \n   **   ~~~   ** ... It is likely that the wrong resource is used. The resource should match the meter used in Utility:Tariff.\n   ** Warning ** The resource referenced by LifeCycleCost:UsePriceEscalation= \"U.S. AVG  COMMERCIAL-DISTILLATE OIL\" has no energy cost. \n   **   ~~~   ** ... It is likely that the wrong resource is used. The resource should match the meter used in Utility:Tariff.\n   ** Warning ** The resource referenced by LifeCycleCost:UsePriceEscalation= \"U.S. AVG  COMMERCIAL-RESIDUAL OIL\" has no energy cost. \n   **   ~~~   ** ... It is likely that the wrong resource is used. The resource should match the meter used in Utility:Tariff.\n   ** Warning ** The resource referenced by LifeCycleCost:UsePriceEscalation= \"U.S. AVG  COMMERCIAL-NATURAL GAS\" has no energy cost. \n   **   ~~~   ** ... It is likely that the wrong resource is used. The resource should match the meter used in Utility:Tariff.\n   ** Warning ** The resource referenced by LifeCycleCost:UsePriceEscalation= \"U.S. AVG  COMMERCIAL-COAL\" has no energy cost. \n   **   ~~~   ** ... It is likely that the wrong resource is used. The resource should match the meter used in Utility:Tariff.\n   ************* Simulation Error Summary *************\n   ************* There are 29 unused schedules in input.\n   ************* There are 29 unused week schedules in input.\n   ************* There are 103 unused day schedules in input.\n   ************* Use Output:Diagnostics,DisplayUnusedSchedules; to see them.\n   *************\n   ************* ===== Recurring Error Summary =====\n   ************* The following recurring error messages occurred.\n   *************\n   *************  ** Warning ** WetBulb not converged after max iterations(PsyTwbFnTdbWPb)\n   *************  **   ~~~   **   This error occurred 7 total times;\n   *************  **   ~~~   **   during Warmup 0 times;\n   *************  **   ~~~   **   during Sizing 0 times.\n   *************\n   *************  ** Warning ** Temperature out of range [-100. to 200.] (PsyPsatFnTemp)\n   *************  **   ~~~   **   This error occurred 6028 total times;\n   *************  **   ~~~   **   during Warmup 0 times;\n   *************  **   ~~~   **   during Sizing 0 times.\n   *************  **   ~~~   **   Max=-100.198971 C  Min=-430.011917 C\n   *************\n   *************  ** Warning ** Enthalpy out of range (PsyTsatFnHPb)\n   *************  **   ~~~   **   This error occurred 8527 total times;\n   *************  **   ~~~   **   during Warmup 0 times;\n   *************  **   ~~~   **   during Sizing 0 times.\n   *************  **   ~~~   **   Max=-42406.122509 J/kg  Min=-328674.181193 J/kg\n   *************\n   *************  ** Warning ** Calculated Humidity Ratio invalid (PsyWFnTdbH)\n   *************  **   ~~~   **   This error occurred 92744 total times;\n   *************  **   ~~~   **   during Warmup 0 times;\n   *************  **   ~~~   **   during Sizing 0 times.\n   *************  **   ~~~   **   Max=-0.000107 []  Min=-0.119802 []\n   *************\n   *************  ** Warning ** SimHVAC: Exceeding Maximum iterations for all HVAC loops, during RUN PERIOD 1 continues\n   *************  **   ~~~   **   This error occurred 248 total times;\n   *************  **   ~~~   **   during Warmup 0 times;\n   *************  **   ~~~   **   during Sizing 0 times.\n   *************\n   *************  ** Warning ** Entered Humidity Ratio invalid (PsyTwbFnTdbWPb)\n   *************  **   ~~~   **   This error occurred 6 total times;\n   *************  **   ~~~   **   during Warmup 0 times;\n   *************  **   ~~~   **   during Sizing 0 times.\n   *************  **   ~~~   **   Max=-999.000000 []  Min=-999.000000 []\n   *************\n   *************\n   ************* ===== Final Error Summary =====\n   ************* The following error categories occurred.  Consider correcting or noting.\n   ************* Nominally Unused Constructions\n   ************* ..The nominally unused constructions warning is provided to alert you to potential conditions that can cause\n   ************* ..extra time during simulation. Each construction is calculated by the algorithm indicated in the HeatBalanceAlgorithm\n   ************* ..object. You may remove the constructions indicated (when you use the DisplayExtraWarnings option).\n   *************\n   ************* EnergyPlus Warmup Error Summary. During Warmup: 0 Warning; 0 Severe Errors.\n   ************* EnergyPlus Sizing Error Summary. During Sizing: 7 Warning; 0 Severe Errors.\n   ************* EnergyPlus Completed Successfully-- 107682 Warning; 0 Severe Errors; Elapsed Time=00hr 00min 13.30sec\n",
   "file_paths" : 
   [
      "C:/Users/15523/AppData/Local/Temp/osmodel-1705646824-0/resources/generated_files",
      "./files",
      "./weather",
      "../../files",
      "../../weather",
      "./"
   ],
   "hash" : "A2540F53",
   "seed_file" : "../1.19-4.osm",
   "started_at" : "20240119T064820Z",
   "steps" : [],
   "updated_at" : "20240119T064834Z",
   "weather_file" : "CHN_Beijing.Beijing.545110_CSWD.epw"
}