Program Version,EnergyPlus, Version 23.1.0-87ed9199d4, YMD=2024.01.16 16:03
